*Heading
** Job name: Job-8 Model name: Model-1
** Generated by: Abaqus/CAE 2023
*Preprint, echo=NO, model=NO, history=NO, contact=NO
**
** PARTS
**
*Part, name=Part-3
*End Part
**  
**
** ASSEMBLY
**
*Assembly, name=Assembly
**  
*Instance, name=Part-3-1, part=Part-3
*Node
      1,           0.,          10.,          15.
      2,          40.,         -20.,          15.
      3,          40.,          40.,          15.
      4,         -20.,          40.,          15.
      5,         -20.,         -20.,          15.
      6,         -20.,          40.,           0.
      7,          40.,          40.,           0.
      8,          40.,         -20.,           0.
      9,         -20.,         -20.,           0.
     10,           0.,          10.,          19.
     11,  0.012430788,   10.4984589,          15.
     12, 0.0496922471,   10.9956789,          15.
     13,  0.111691736,   11.4904222,          15.
     14,  0.198275119,   11.9814615,          15.
     15,  0.309227139,   12.4675741,          15.
     16,  0.444271952,   12.9475517,          15.
     17,  0.603073776,   13.4202013,          15.
     18,  0.785237908,   13.8843479,          15.
     19,  0.990311325,   14.3388376,          15.
     20,   1.21778429,   14.7825394,          15.
** ... 23696 like lines cut
*Element, type=C3D8
   1,   656,   109,   110,   627,  8252,  7926,  7927,  8223
   2,   783,   778,   494,   770,  8379,  8374,  8090,  8366
   3,   811,   828,   819,  1639,  8407,  8424,  8415,  9235
   4,   475,  1108,   868,   776,  8071,  8704,  8464,  8372
   5,   918,  1002,   951,  1688,  8514,  8598,  8547,  9284
   6,   445,   836,   787,   814,  8041,  8432,  8383,  8410
   7,   712,   128,   129,   688,  8308,  7945,  7946,  8284
   8,   688,   129,   130,   704,  8284,  7946,  7947,  8300
   9,   133,   698,   690,   132,  7950,  8294,  8286,  7949
  10,   975,  1015,   378,   952,  8571,  8611,  7974,  8548
  11,   396,  1673,  1111,  1138,  7992,  9269,  8707,  8734
  12,   381,  1203,  1714,  1749,  7977,  8799,  9310,  9345
  13,  1055,  1203,  1229,   398,  8651,  8799,  8825,  7994
  14,  1391,   382,  1791,  1350,  8987,  7978,  9387,  8946
  15,  1861,  1403,  1465,  1468,  9457,  8999,  9061,  9064
  16,  1873,  1487,  1861,  1468,  9469,  9083,  9457,  9064
  17,  1495,  1512,   385,  1507,  9091,  9108,  7981,  9103
  18,  1564,  1891,  1560,  1553,  9160,  9487,  9156,  9149
  19,  1839,  1462,  1852,  1478,  9435,  9058,  9448,  9074
  20,  1436,  1380,  1819,  1418,  9032,  8976,  9415,  9014
** ... 20520 like lines cut
*End Instance
**  
*End Assembly
** 
** MATERIALS
** 
*Material, name=Material-1
*Elastic
 1.9e+11, 0.3
** ----------------------------------------------------------------
** 
** STEP: Step-1
** 
*Step, name=Step-1, nlgeom=NO
*Static
1., 1., 1e-05, 1.
** 
** OUTPUT REQUESTS
** 
*Restart, write, frequency=0
** 
** FIELD OUTPUT: F-Output-1
** 
*Output, field, variable=PRESELECT
** 
** HISTORY OUTPUT: H-Output-1
** 
*Output, history, variable=PRESELECT
*End Step
